<?xml version="1.0" encoding="UTF-8"?>
<!--  An excerpt of an egocentric social network  -->
<graphml xmlns="http://graphml.graphdrawing.org/xmlns">
<graph edgedefault="undirected">
<!-- data schema -->
<key id="name" for="node" attr.name="name" attr.type="string"/>
<key id="type" for="node" attr.name="type" attr.type="string"/>
<node id="1"><data key="name">DrawingPanel</data><data key="type">inheritance</data></node>
<node id="3"><data key="name">PertPanel</data><data key="type">inheritance</data></node>
<node id="5"><data key="name">SVGPanel</data><data key="type">inheritance</data></node>
<node id="2"><data key="name">NetPanel</data><data key="type">inheritance</data></node>
<node id="6"><data key="name">UndoRedoManager</data><data key="type">inheritance</data></node>
<node id="4"><data key="name">RestoreDataEdit</data><data key="type">inheritance</data></node>
<edge source="2" target="3"></edge>
<edge source="3" target="1"></edge>
<edge source="5" target="1"></edge>
</graph></graphml>